Version 4
SHEET 1 10468 1012
WIRE 112 112 64 112
WIRE 10432 112 10352 112
WIRE 10432 272 10432 112
WIRE 10432 272 64 272
WIRE 64 384 64 272
WIRE 112 384 64 384
WIRE 10432 384 10352 384
WIRE 10432 544 10432 384
WIRE 10432 544 64 544
WIRE 64 656 64 544
WIRE 112 656 64 656
WIRE 10432 656 10352 656
WIRE 10432 816 10432 656
WIRE 10432 816 64 816
WIRE 64 928 64 816
WIRE 112 928 64 928
WIRE 10432 928 10352 928
FLAG 192 176 0
FLAG 272 176 0
FLAG 352 176 0
FLAG 432 176 0
FLAG 512 176 0
FLAG 592 176 0
FLAG 672 176 0
FLAG 752 176 0
FLAG 832 176 0
FLAG 912 176 0
FLAG 992 176 0
FLAG 1072 176 0
FLAG 1152 176 0
FLAG 1232 176 0
FLAG 1312 176 0
FLAG 1392 176 0
FLAG 1472 176 0
FLAG 1552 176 0
FLAG 1632 176 0
FLAG 1712 176 0
FLAG 1792 176 0
FLAG 1872 176 0
FLAG 1952 176 0
FLAG 2032 176 0
FLAG 2112 176 0
FLAG 2192 176 0
FLAG 2272 176 0
FLAG 2352 176 0
FLAG 2432 176 0
FLAG 2512 176 0
FLAG 2592 176 0
FLAG 2672 176 0
FLAG 2752 176 0
FLAG 2832 176 0
FLAG 2912 176 0
FLAG 2992 176 0
FLAG 3072 176 0
FLAG 3152 176 0
FLAG 3232 176 0
FLAG 3312 176 0
FLAG 3392 176 0
FLAG 3472 176 0
FLAG 3552 176 0
FLAG 3632 176 0
FLAG 3712 176 0
FLAG 3792 176 0
FLAG 3872 176 0
FLAG 3952 176 0
FLAG 4032 176 0
FLAG 4112 176 0
FLAG 4192 176 0
FLAG 4272 176 0
FLAG 4352 176 0
FLAG 4432 176 0
FLAG 4512 176 0
FLAG 4592 176 0
FLAG 4672 176 0
FLAG 4752 176 0
FLAG 4832 176 0
FLAG 4912 176 0
FLAG 4992 176 0
FLAG 5072 176 0
FLAG 5152 176 0
FLAG 5232 176 0
FLAG 5312 176 0
FLAG 5392 176 0
FLAG 5472 176 0
FLAG 5552 176 0
FLAG 5632 176 0
FLAG 5712 176 0
FLAG 5792 176 0
FLAG 5872 176 0
FLAG 5952 176 0
FLAG 6032 176 0
FLAG 6112 176 0
FLAG 6192 176 0
FLAG 6272 176 0
FLAG 6352 176 0
FLAG 6432 176 0
FLAG 6512 176 0
FLAG 6592 176 0
FLAG 6672 176 0
FLAG 6752 176 0
FLAG 6832 176 0
FLAG 6912 176 0
FLAG 6992 176 0
FLAG 7072 176 0
FLAG 7152 176 0
FLAG 7232 176 0
FLAG 7312 176 0
FLAG 7392 176 0
FLAG 7472 176 0
FLAG 7552 176 0
FLAG 7632 176 0
FLAG 7712 176 0
FLAG 7792 176 0
FLAG 7872 176 0
FLAG 7952 176 0
FLAG 8032 176 0
FLAG 8112 176 0
FLAG 8192 176 0
FLAG 8272 176 0
FLAG 8352 176 0
FLAG 8432 176 0
FLAG 8512 176 0
FLAG 8592 176 0
FLAG 8672 176 0
FLAG 8752 176 0
FLAG 8832 176 0
FLAG 8912 176 0
FLAG 8992 176 0
FLAG 9072 176 0
FLAG 9152 176 0
FLAG 9232 176 0
FLAG 9312 176 0
FLAG 9392 176 0
FLAG 9472 176 0
FLAG 9552 176 0
FLAG 9632 176 0
FLAG 9712 176 0
FLAG 9792 176 0
FLAG 9872 176 0
FLAG 9952 176 0
FLAG 10032 176 0
FLAG 10112 176 0
FLAG 10192 176 0
FLAG 10272 176 0
FLAG 10352 176 0
FLAG 192 448 0
FLAG 272 448 0
FLAG 352 448 0
FLAG 432 448 0
FLAG 512 448 0
FLAG 592 448 0
FLAG 672 448 0
FLAG 752 448 0
FLAG 832 448 0
FLAG 912 448 0
FLAG 992 448 0
FLAG 1072 448 0
FLAG 1152 448 0
FLAG 1232 448 0
FLAG 1312 448 0
FLAG 1392 448 0
FLAG 1472 448 0
FLAG 1552 448 0
FLAG 1632 448 0
FLAG 1712 448 0
FLAG 1792 448 0
FLAG 1872 448 0
FLAG 1952 448 0
FLAG 2032 448 0
FLAG 2112 448 0
FLAG 2192 448 0
FLAG 2272 448 0
FLAG 2352 448 0
FLAG 2432 448 0
FLAG 2512 448 0
FLAG 2592 448 0
FLAG 2672 448 0
FLAG 2752 448 0
FLAG 2832 448 0
FLAG 2912 448 0
FLAG 2992 448 0
FLAG 3072 448 0
FLAG 3152 448 0
FLAG 3232 448 0
FLAG 3312 448 0
FLAG 3392 448 0
FLAG 3472 448 0
FLAG 3552 448 0
FLAG 3632 448 0
FLAG 3712 448 0
FLAG 3792 448 0
FLAG 3872 448 0
FLAG 3952 448 0
FLAG 4032 448 0
FLAG 4112 448 0
FLAG 4192 448 0
FLAG 4272 448 0
FLAG 4352 448 0
FLAG 4432 448 0
FLAG 4512 448 0
FLAG 4592 448 0
FLAG 4672 448 0
FLAG 4752 448 0
FLAG 4832 448 0
FLAG 4912 448 0
FLAG 4992 448 0
FLAG 5072 448 0
FLAG 5152 448 0
FLAG 5232 448 0
FLAG 5312 448 0
FLAG 5392 448 0
FLAG 5472 448 0
FLAG 5552 448 0
FLAG 5632 448 0
FLAG 5712 448 0
FLAG 5792 448 0
FLAG 5872 448 0
FLAG 5952 448 0
FLAG 6032 448 0
FLAG 6112 448 0
FLAG 6192 448 0
FLAG 6272 448 0
FLAG 6352 448 0
FLAG 6432 448 0
FLAG 6512 448 0
FLAG 6592 448 0
FLAG 6672 448 0
FLAG 6752 448 0
FLAG 6832 448 0
FLAG 6912 448 0
FLAG 6992 448 0
FLAG 7072 448 0
FLAG 7152 448 0
FLAG 7232 448 0
FLAG 7312 448 0
FLAG 7392 448 0
FLAG 7472 448 0
FLAG 7552 448 0
FLAG 7632 448 0
FLAG 7712 448 0
FLAG 7792 448 0
FLAG 7872 448 0
FLAG 7952 448 0
FLAG 8032 448 0
FLAG 8112 448 0
FLAG 8192 448 0
FLAG 8272 448 0
FLAG 8352 448 0
FLAG 8432 448 0
FLAG 8512 448 0
FLAG 8592 448 0
FLAG 8672 448 0
FLAG 8752 448 0
FLAG 8832 448 0
FLAG 8912 448 0
FLAG 8992 448 0
FLAG 9072 448 0
FLAG 9152 448 0
FLAG 9232 448 0
FLAG 9312 448 0
FLAG 9392 448 0
FLAG 9472 448 0
FLAG 9552 448 0
FLAG 9632 448 0
FLAG 9712 448 0
FLAG 9792 448 0
FLAG 9872 448 0
FLAG 9952 448 0
FLAG 10032 448 0
FLAG 10112 448 0
FLAG 10192 448 0
FLAG 10272 448 0
FLAG 10352 448 0
FLAG 192 720 0
FLAG 272 720 0
FLAG 352 720 0
FLAG 432 720 0
FLAG 512 720 0
FLAG 592 720 0
FLAG 672 720 0
FLAG 752 720 0
FLAG 832 720 0
FLAG 912 720 0
FLAG 992 720 0
FLAG 1072 720 0
FLAG 1152 720 0
FLAG 1232 720 0
FLAG 1312 720 0
FLAG 1392 720 0
FLAG 1472 720 0
FLAG 1552 720 0
FLAG 1632 720 0
FLAG 1712 720 0
FLAG 1792 720 0
FLAG 1872 720 0
FLAG 1952 720 0
FLAG 2032 720 0
FLAG 2112 720 0
FLAG 2192 720 0
FLAG 2272 720 0
FLAG 2352 720 0
FLAG 2432 720 0
FLAG 2512 720 0
FLAG 2592 720 0
FLAG 2672 720 0
FLAG 2752 720 0
FLAG 2832 720 0
FLAG 2912 720 0
FLAG 2992 720 0
FLAG 3072 720 0
FLAG 3152 720 0
FLAG 3232 720 0
FLAG 3312 720 0
FLAG 3392 720 0
FLAG 3472 720 0
FLAG 3552 720 0
FLAG 3632 720 0
FLAG 3712 720 0
FLAG 3792 720 0
FLAG 3872 720 0
FLAG 3952 720 0
FLAG 4032 720 0
FLAG 4112 720 0
FLAG 4192 720 0
FLAG 4272 720 0
FLAG 4352 720 0
FLAG 4432 720 0
FLAG 4512 720 0
FLAG 4592 720 0
FLAG 4672 720 0
FLAG 4752 720 0
FLAG 4832 720 0
FLAG 4912 720 0
FLAG 4992 720 0
FLAG 5072 720 0
FLAG 5152 720 0
FLAG 5232 720 0
FLAG 5312 720 0
FLAG 5392 720 0
FLAG 5472 720 0
FLAG 5552 720 0
FLAG 5632 720 0
FLAG 5712 720 0
FLAG 5792 720 0
FLAG 5872 720 0
FLAG 5952 720 0
FLAG 6032 720 0
FLAG 6112 720 0
FLAG 6192 720 0
FLAG 6272 720 0
FLAG 6352 720 0
FLAG 6432 720 0
FLAG 6512 720 0
FLAG 6592 720 0
FLAG 6672 720 0
FLAG 6752 720 0
FLAG 6832 720 0
FLAG 6912 720 0
FLAG 6992 720 0
FLAG 7072 720 0
FLAG 7152 720 0
FLAG 7232 720 0
FLAG 7312 720 0
FLAG 7392 720 0
FLAG 7472 720 0
FLAG 7552 720 0
FLAG 7632 720 0
FLAG 7712 720 0
FLAG 7792 720 0
FLAG 7872 720 0
FLAG 7952 720 0
FLAG 8032 720 0
FLAG 8112 720 0
FLAG 8192 720 0
FLAG 8272 720 0
FLAG 8352 720 0
FLAG 8432 720 0
FLAG 8512 720 0
FLAG 8592 720 0
FLAG 8672 720 0
FLAG 8752 720 0
FLAG 8832 720 0
FLAG 8912 720 0
FLAG 8992 720 0
FLAG 9072 720 0
FLAG 9152 720 0
FLAG 9232 720 0
FLAG 9312 720 0
FLAG 9392 720 0
FLAG 9472 720 0
FLAG 9552 720 0
FLAG 9632 720 0
FLAG 9712 720 0
FLAG 9792 720 0
FLAG 9872 720 0
FLAG 9952 720 0
FLAG 10032 720 0
FLAG 10112 720 0
FLAG 10192 720 0
FLAG 10272 720 0
FLAG 10352 720 0
FLAG 192 992 0
FLAG 272 992 0
FLAG 352 992 0
FLAG 432 992 0
FLAG 512 992 0
FLAG 592 992 0
FLAG 672 992 0
FLAG 752 992 0
FLAG 832 992 0
FLAG 912 992 0
FLAG 992 992 0
FLAG 1072 992 0
FLAG 1152 992 0
FLAG 1232 992 0
FLAG 1312 992 0
FLAG 1392 992 0
FLAG 1472 992 0
FLAG 1552 992 0
FLAG 1632 992 0
FLAG 1712 992 0
FLAG 1792 992 0
FLAG 1872 992 0
FLAG 1952 992 0
FLAG 2032 992 0
FLAG 2112 992 0
FLAG 2192 992 0
FLAG 2272 992 0
FLAG 2352 992 0
FLAG 2432 992 0
FLAG 2512 992 0
FLAG 2592 992 0
FLAG 2672 992 0
FLAG 2752 992 0
FLAG 2832 992 0
FLAG 2912 992 0
FLAG 2992 992 0
FLAG 3072 992 0
FLAG 3152 992 0
FLAG 3232 992 0
FLAG 3312 992 0
FLAG 3392 992 0
FLAG 3472 992 0
FLAG 3552 992 0
FLAG 3632 992 0
FLAG 3712 992 0
FLAG 3792 992 0
FLAG 3872 992 0
FLAG 3952 992 0
FLAG 4032 992 0
FLAG 4112 992 0
FLAG 4192 992 0
FLAG 4272 992 0
FLAG 4352 992 0
FLAG 4432 992 0
FLAG 4512 992 0
FLAG 4592 992 0
FLAG 4672 992 0
FLAG 4752 992 0
FLAG 4832 992 0
FLAG 4912 992 0
FLAG 4992 992 0
FLAG 5072 992 0
FLAG 5152 992 0
FLAG 5232 992 0
FLAG 5312 992 0
FLAG 5392 992 0
FLAG 5472 992 0
FLAG 5552 992 0
FLAG 5632 992 0
FLAG 5712 992 0
FLAG 5792 992 0
FLAG 5872 992 0
FLAG 5952 992 0
FLAG 6032 992 0
FLAG 6112 992 0
FLAG 6192 992 0
FLAG 6272 992 0
FLAG 6352 992 0
FLAG 6432 992 0
FLAG 6512 992 0
FLAG 6592 992 0
FLAG 6672 992 0
FLAG 6752 992 0
FLAG 6832 992 0
FLAG 6912 992 0
FLAG 6992 992 0
FLAG 7072 992 0
FLAG 7152 992 0
FLAG 7232 992 0
FLAG 7312 992 0
FLAG 7392 992 0
FLAG 7472 992 0
FLAG 7552 992 0
FLAG 7632 992 0
FLAG 7712 992 0
FLAG 7792 992 0
FLAG 7872 992 0
FLAG 7952 992 0
FLAG 8032 992 0
FLAG 8112 992 0
FLAG 8192 992 0
FLAG 8272 992 0
FLAG 8352 992 0
FLAG 8432 992 0
FLAG 8512 992 0
FLAG 8592 992 0
FLAG 8672 992 0
FLAG 8752 992 0
FLAG 8832 992 0
FLAG 8912 992 0
FLAG 8992 992 0
FLAG 9072 992 0
FLAG 9152 992 0
FLAG 9232 992 0
FLAG 9312 992 0
FLAG 9392 992 0
FLAG 9472 992 0
FLAG 9552 992 0
FLAG 9632 992 0
FLAG 9712 992 0
FLAG 9792 992 0
FLAG 9872 992 0
FLAG 9952 992 0
FLAG 10032 992 0
FLAG 10112 992 0
FLAG 10192 992 0
FLAG 10272 992 0
FLAG 10352 992 0
FLAG 64 112 L
FLAG 10432 928 R
SYMBOL res 208 96 R90
WINDOW 0 0 56 VBottom 2
WINDOW 3 32 56 VTop 2
SYMATTR InstName R1
SYMATTR Value {R}
SYMBOL cap 176 112 R0
SYMATTR InstName C1
SYMATTR Value {C}
SYMBOL res 288 96 R90
WINDOW 0 0 56 VBottom 2
WINDOW 3 32 56 VTop 2
SYMATTR InstName R2
SYMATTR Value {R}
SYMBOL cap 256 112 R0
SYMATTR InstName C2
SYMATTR Value {C}
SYMBOL res 368 96 R90
WINDOW 0 0 56 VBottom 2
WINDOW 3 32 56 VTop 2
SYMATTR InstName R3
SYMATTR Value {R}
SYMBOL cap 336 112 R0
SYMATTR InstName C3
SYMATTR Value {C}
SYMBOL res 448 96 R90
WINDOW 0 0 56 VBottom 2
WINDOW 3 32 56 VTop 2
SYMATTR InstName R4
SYMATTR Value {R}
SYMBOL cap 416 112 R0
SYMATTR InstName C4
SYMATTR Value {C}
SYMBOL res 528 96 R90
WINDOW 0 0 56 VBottom 2
WINDOW 3 32 56 VTop 2
SYMATTR InstName R5
SYMATTR Value {R}
SYMBOL cap 496 112 R0
SYMATTR InstName C5
SYMATTR Value {C}
SYMBOL res 608 96 R90
WINDOW 0 0 56 VBottom 2
WINDOW 3 32 56 VTop 2
SYMATTR InstName R6
SYMATTR Value {R}
SYMBOL cap 576 112 R0
SYMATTR InstName C6
SYMATTR Value {C}
SYMBOL res 688 96 R90
WINDOW 0 0 56 VBottom 2
WINDOW 3 32 56 VTop 2
SYMATTR InstName R7
SYMATTR Value {R}
SYMBOL cap 656 112 R0
SYMATTR InstName C7
SYMATTR Value {C}
SYMBOL res 768 96 R90
WINDOW 0 0 56 VBottom 2
WINDOW 3 32 56 VTop 2
SYMATTR InstName R8
SYMATTR Value {R}
SYMBOL cap 736 112 R0
SYMATTR InstName C8
SYMATTR Value {C}
SYMBOL res 848 96 R90
WINDOW 0 0 56 VBottom 2
WINDOW 3 32 56 VTop 2
SYMATTR InstName R9
SYMATTR Value {R}
SYMBOL cap 816 112 R0
SYMATTR InstName C9
SYMATTR Value {C}
SYMBOL res 928 96 R90
WINDOW 0 0 56 VBottom 2
WINDOW 3 32 56 VTop 2
SYMATTR InstName R10
SYMATTR Value {R}
SYMBOL cap 896 112 R0
SYMATTR InstName C10
SYMATTR Value {C}
SYMBOL res 1008 96 R90
WINDOW 0 0 56 VBottom 2
WINDOW 3 32 56 VTop 2
SYMATTR InstName R11
SYMATTR Value {R}
SYMBOL cap 976 112 R0
SYMATTR InstName C11
SYMATTR Value {C}
SYMBOL res 1088 96 R90
WINDOW 0 0 56 VBottom 2
WINDOW 3 32 56 VTop 2
SYMATTR InstName R12
SYMATTR Value {R}
SYMBOL cap 1056 112 R0
SYMATTR InstName C12
SYMATTR Value {C}
SYMBOL res 1168 96 R90
WINDOW 0 0 56 VBottom 2
WINDOW 3 32 56 VTop 2
SYMATTR InstName R13
SYMATTR Value {R}
SYMBOL cap 1136 112 R0
SYMATTR InstName C13
SYMATTR Value {C}
SYMBOL res 1248 96 R90
WINDOW 0 0 56 VBottom 2
WINDOW 3 32 56 VTop 2
SYMATTR InstName R14
SYMATTR Value {R}
SYMBOL cap 1216 112 R0
SYMATTR InstName C14
SYMATTR Value {C}
SYMBOL res 1328 96 R90
WINDOW 0 0 56 VBottom 2
WINDOW 3 32 56 VTop 2
SYMATTR InstName R15
SYMATTR Value {R}
SYMBOL cap 1296 112 R0
SYMATTR InstName C15
SYMATTR Value {C}
SYMBOL res 1408 96 R90
WINDOW 0 0 56 VBottom 2
WINDOW 3 32 56 VTop 2
SYMATTR InstName R16
SYMATTR Value {R}
SYMBOL cap 1376 112 R0
SYMATTR InstName C16
SYMATTR Value {C}
SYMBOL res 1488 96 R90
WINDOW 0 0 56 VBottom 2
WINDOW 3 32 56 VTop 2
SYMATTR InstName R17
SYMATTR Value {R}
SYMBOL cap 1456 112 R0
SYMATTR InstName C17
SYMATTR Value {C}
SYMBOL res 1568 96 R90
WINDOW 0 0 56 VBottom 2
WINDOW 3 32 56 VTop 2
SYMATTR InstName R18
SYMATTR Value {R}
SYMBOL cap 1536 112 R0
SYMATTR InstName C18
SYMATTR Value {C}
SYMBOL res 1648 96 R90
WINDOW 0 0 56 VBottom 2
WINDOW 3 32 56 VTop 2
SYMATTR InstName R19
SYMATTR Value {R}
SYMBOL cap 1616 112 R0
SYMATTR InstName C19
SYMATTR Value {C}
SYMBOL res 1728 96 R90
WINDOW 0 0 56 VBottom 2
WINDOW 3 32 56 VTop 2
SYMATTR InstName R20
SYMATTR Value {R}
SYMBOL cap 1696 112 R0
SYMATTR InstName C20
SYMATTR Value {C}
SYMBOL res 1808 96 R90
WINDOW 0 0 56 VBottom 2
WINDOW 3 32 56 VTop 2
SYMATTR InstName R21
SYMATTR Value {R}
SYMBOL cap 1776 112 R0
SYMATTR InstName C21
SYMATTR Value {C}
SYMBOL res 1888 96 R90
WINDOW 0 0 56 VBottom 2
WINDOW 3 32 56 VTop 2
SYMATTR InstName R22
SYMATTR Value {R}
SYMBOL cap 1856 112 R0
SYMATTR InstName C22
SYMATTR Value {C}
SYMBOL res 1968 96 R90
WINDOW 0 0 56 VBottom 2
WINDOW 3 32 56 VTop 2
SYMATTR InstName R23
SYMATTR Value {R}
SYMBOL cap 1936 112 R0
SYMATTR InstName C23
SYMATTR Value {C}
SYMBOL res 2048 96 R90
WINDOW 0 0 56 VBottom 2
WINDOW 3 32 56 VTop 2
SYMATTR InstName R24
SYMATTR Value {R}
SYMBOL cap 2016 112 R0
SYMATTR InstName C24
SYMATTR Value {C}
SYMBOL res 2128 96 R90
WINDOW 0 0 56 VBottom 2
WINDOW 3 32 56 VTop 2
SYMATTR InstName R25
SYMATTR Value {R}
SYMBOL cap 2096 112 R0
SYMATTR InstName C25
SYMATTR Value {C}
SYMBOL res 2208 96 R90
WINDOW 0 0 56 VBottom 2
WINDOW 3 32 56 VTop 2
SYMATTR InstName R26
SYMATTR Value {R}
SYMBOL cap 2176 112 R0
SYMATTR InstName C26
SYMATTR Value {C}
SYMBOL res 2288 96 R90
WINDOW 0 0 56 VBottom 2
WINDOW 3 32 56 VTop 2
SYMATTR InstName R27
SYMATTR Value {R}
SYMBOL cap 2256 112 R0
SYMATTR InstName C27
SYMATTR Value {C}
SYMBOL res 2368 96 R90
WINDOW 0 0 56 VBottom 2
WINDOW 3 32 56 VTop 2
SYMATTR InstName R28
SYMATTR Value {R}
SYMBOL cap 2336 112 R0
SYMATTR InstName C28
SYMATTR Value {C}
SYMBOL res 2448 96 R90
WINDOW 0 0 56 VBottom 2
WINDOW 3 32 56 VTop 2
SYMATTR InstName R29
SYMATTR Value {R}
SYMBOL cap 2416 112 R0
SYMATTR InstName C29
SYMATTR Value {C}
SYMBOL res 2528 96 R90
WINDOW 0 0 56 VBottom 2
WINDOW 3 32 56 VTop 2
SYMATTR InstName R30
SYMATTR Value {R}
SYMBOL cap 2496 112 R0
SYMATTR InstName C30
SYMATTR Value {C}
SYMBOL res 2608 96 R90
WINDOW 0 0 56 VBottom 2
WINDOW 3 32 56 VTop 2
SYMATTR InstName R31
SYMATTR Value {R}
SYMBOL cap 2576 112 R0
SYMATTR InstName C31
SYMATTR Value {C}
SYMBOL res 2688 96 R90
WINDOW 0 0 56 VBottom 2
WINDOW 3 32 56 VTop 2
SYMATTR InstName R32
SYMATTR Value {R}
SYMBOL cap 2656 112 R0
SYMATTR InstName C32
SYMATTR Value {C}
SYMBOL res 2768 96 R90
WINDOW 0 0 56 VBottom 2
WINDOW 3 32 56 VTop 2
SYMATTR InstName R33
SYMATTR Value {R}
SYMBOL cap 2736 112 R0
SYMATTR InstName C33
SYMATTR Value {C}
SYMBOL res 2848 96 R90
WINDOW 0 0 56 VBottom 2
WINDOW 3 32 56 VTop 2
SYMATTR InstName R34
SYMATTR Value {R}
SYMBOL cap 2816 112 R0
SYMATTR InstName C34
SYMATTR Value {C}
SYMBOL res 2928 96 R90
WINDOW 0 0 56 VBottom 2
WINDOW 3 32 56 VTop 2
SYMATTR InstName R35
SYMATTR Value {R}
SYMBOL cap 2896 112 R0
SYMATTR InstName C35
SYMATTR Value {C}
SYMBOL res 3008 96 R90
WINDOW 0 0 56 VBottom 2
WINDOW 3 32 56 VTop 2
SYMATTR InstName R36
SYMATTR Value {R}
SYMBOL cap 2976 112 R0
SYMATTR InstName C36
SYMATTR Value {C}
SYMBOL res 3088 96 R90
WINDOW 0 0 56 VBottom 2
WINDOW 3 32 56 VTop 2
SYMATTR InstName R37
SYMATTR Value {R}
SYMBOL cap 3056 112 R0
SYMATTR InstName C37
SYMATTR Value {C}
SYMBOL res 3168 96 R90
WINDOW 0 0 56 VBottom 2
WINDOW 3 32 56 VTop 2
SYMATTR InstName R38
SYMATTR Value {R}
SYMBOL cap 3136 112 R0
SYMATTR InstName C38
SYMATTR Value {C}
SYMBOL res 3248 96 R90
WINDOW 0 0 56 VBottom 2
WINDOW 3 32 56 VTop 2
SYMATTR InstName R39
SYMATTR Value {R}
SYMBOL cap 3216 112 R0
SYMATTR InstName C39
SYMATTR Value {C}
SYMBOL res 3328 96 R90
WINDOW 0 0 56 VBottom 2
WINDOW 3 32 56 VTop 2
SYMATTR InstName R40
SYMATTR Value {R}
SYMBOL cap 3296 112 R0
SYMATTR InstName C40
SYMATTR Value {C}
SYMBOL res 3408 96 R90
WINDOW 0 0 56 VBottom 2
WINDOW 3 32 56 VTop 2
SYMATTR InstName R41
SYMATTR Value {R}
SYMBOL cap 3376 112 R0
SYMATTR InstName C41
SYMATTR Value {C}
SYMBOL res 3488 96 R90
WINDOW 0 0 56 VBottom 2
WINDOW 3 32 56 VTop 2
SYMATTR InstName R42
SYMATTR Value {R}
SYMBOL cap 3456 112 R0
SYMATTR InstName C42
SYMATTR Value {C}
SYMBOL res 3568 96 R90
WINDOW 0 0 56 VBottom 2
WINDOW 3 32 56 VTop 2
SYMATTR InstName R43
SYMATTR Value {R}
SYMBOL cap 3536 112 R0
SYMATTR InstName C43
SYMATTR Value {C}
SYMBOL res 3648 96 R90
WINDOW 0 0 56 VBottom 2
WINDOW 3 32 56 VTop 2
SYMATTR InstName R44
SYMATTR Value {R}
SYMBOL cap 3616 112 R0
SYMATTR InstName C44
SYMATTR Value {C}
SYMBOL res 3728 96 R90
WINDOW 0 0 56 VBottom 2
WINDOW 3 32 56 VTop 2
SYMATTR InstName R45
SYMATTR Value {R}
SYMBOL cap 3696 112 R0
SYMATTR InstName C45
SYMATTR Value {C}
SYMBOL res 3808 96 R90
WINDOW 0 0 56 VBottom 2
WINDOW 3 32 56 VTop 2
SYMATTR InstName R46
SYMATTR Value {R}
SYMBOL cap 3776 112 R0
SYMATTR InstName C46
SYMATTR Value {C}
SYMBOL res 3888 96 R90
WINDOW 0 0 56 VBottom 2
WINDOW 3 32 56 VTop 2
SYMATTR InstName R47
SYMATTR Value {R}
SYMBOL cap 3856 112 R0
SYMATTR InstName C47
SYMATTR Value {C}
SYMBOL res 3968 96 R90
WINDOW 0 0 56 VBottom 2
WINDOW 3 32 56 VTop 2
SYMATTR InstName R48
SYMATTR Value {R}
SYMBOL cap 3936 112 R0
SYMATTR InstName C48
SYMATTR Value {C}
SYMBOL res 4048 96 R90
WINDOW 0 0 56 VBottom 2
WINDOW 3 32 56 VTop 2
SYMATTR InstName R49
SYMATTR Value {R}
SYMBOL cap 4016 112 R0
SYMATTR InstName C49
SYMATTR Value {C}
SYMBOL res 4128 96 R90
WINDOW 0 0 56 VBottom 2
WINDOW 3 32 56 VTop 2
SYMATTR InstName R50
SYMATTR Value {R}
SYMBOL cap 4096 112 R0
SYMATTR InstName C50
SYMATTR Value {C}
SYMBOL res 4208 96 R90
WINDOW 0 0 56 VBottom 2
WINDOW 3 32 56 VTop 2
SYMATTR InstName R51
SYMATTR Value {R}
SYMBOL cap 4176 112 R0
SYMATTR InstName C51
SYMATTR Value {C}
SYMBOL res 4288 96 R90
WINDOW 0 0 56 VBottom 2
WINDOW 3 32 56 VTop 2
SYMATTR InstName R52
SYMATTR Value {R}
SYMBOL cap 4256 112 R0
SYMATTR InstName C52
SYMATTR Value {C}
SYMBOL res 4368 96 R90
WINDOW 0 0 56 VBottom 2
WINDOW 3 32 56 VTop 2
SYMATTR InstName R53
SYMATTR Value {R}
SYMBOL cap 4336 112 R0
SYMATTR InstName C53
SYMATTR Value {C}
SYMBOL res 4448 96 R90
WINDOW 0 0 56 VBottom 2
WINDOW 3 32 56 VTop 2
SYMATTR InstName R54
SYMATTR Value {R}
SYMBOL cap 4416 112 R0
SYMATTR InstName C54
SYMATTR Value {C}
SYMBOL res 4528 96 R90
WINDOW 0 0 56 VBottom 2
WINDOW 3 32 56 VTop 2
SYMATTR InstName R55
SYMATTR Value {R}
SYMBOL cap 4496 112 R0
SYMATTR InstName C55
SYMATTR Value {C}
SYMBOL res 4608 96 R90
WINDOW 0 0 56 VBottom 2
WINDOW 3 32 56 VTop 2
SYMATTR InstName R56
SYMATTR Value {R}
SYMBOL cap 4576 112 R0
SYMATTR InstName C56
SYMATTR Value {C}
SYMBOL res 4688 96 R90
WINDOW 0 0 56 VBottom 2
WINDOW 3 32 56 VTop 2
SYMATTR InstName R57
SYMATTR Value {R}
SYMBOL cap 4656 112 R0
SYMATTR InstName C57
SYMATTR Value {C}
SYMBOL res 4768 96 R90
WINDOW 0 0 56 VBottom 2
WINDOW 3 32 56 VTop 2
SYMATTR InstName R58
SYMATTR Value {R}
SYMBOL cap 4736 112 R0
SYMATTR InstName C58
SYMATTR Value {C}
SYMBOL res 4848 96 R90
WINDOW 0 0 56 VBottom 2
WINDOW 3 32 56 VTop 2
SYMATTR InstName R59
SYMATTR Value {R}
SYMBOL cap 4816 112 R0
SYMATTR InstName C59
SYMATTR Value {C}
SYMBOL res 4928 96 R90
WINDOW 0 0 56 VBottom 2
WINDOW 3 32 56 VTop 2
SYMATTR InstName R60
SYMATTR Value {R}
SYMBOL cap 4896 112 R0
SYMATTR InstName C60
SYMATTR Value {C}
SYMBOL res 5008 96 R90
WINDOW 0 0 56 VBottom 2
WINDOW 3 32 56 VTop 2
SYMATTR InstName R61
SYMATTR Value {R}
SYMBOL cap 4976 112 R0
SYMATTR InstName C61
SYMATTR Value {C}
SYMBOL res 5088 96 R90
WINDOW 0 0 56 VBottom 2
WINDOW 3 32 56 VTop 2
SYMATTR InstName R62
SYMATTR Value {R}
SYMBOL cap 5056 112 R0
SYMATTR InstName C62
SYMATTR Value {C}
SYMBOL res 5168 96 R90
WINDOW 0 0 56 VBottom 2
WINDOW 3 32 56 VTop 2
SYMATTR InstName R63
SYMATTR Value {R}
SYMBOL cap 5136 112 R0
SYMATTR InstName C63
SYMATTR Value {C}
SYMBOL res 5248 96 R90
WINDOW 0 0 56 VBottom 2
WINDOW 3 32 56 VTop 2
SYMATTR InstName R64
SYMATTR Value {R}
SYMBOL cap 5216 112 R0
SYMATTR InstName C64
SYMATTR Value {C}
SYMBOL res 5328 96 R90
WINDOW 0 0 56 VBottom 2
WINDOW 3 32 56 VTop 2
SYMATTR InstName R65
SYMATTR Value {R}
SYMBOL cap 5296 112 R0
SYMATTR InstName C65
SYMATTR Value {C}
SYMBOL res 5408 96 R90
WINDOW 0 0 56 VBottom 2
WINDOW 3 32 56 VTop 2
SYMATTR InstName R66
SYMATTR Value {R}
SYMBOL cap 5376 112 R0
SYMATTR InstName C66
SYMATTR Value {C}
SYMBOL res 5488 96 R90
WINDOW 0 0 56 VBottom 2
WINDOW 3 32 56 VTop 2
SYMATTR InstName R67
SYMATTR Value {R}
SYMBOL cap 5456 112 R0
SYMATTR InstName C67
SYMATTR Value {C}
SYMBOL res 5568 96 R90
WINDOW 0 0 56 VBottom 2
WINDOW 3 32 56 VTop 2
SYMATTR InstName R68
SYMATTR Value {R}
SYMBOL cap 5536 112 R0
SYMATTR InstName C68
SYMATTR Value {C}
SYMBOL res 5648 96 R90
WINDOW 0 0 56 VBottom 2
WINDOW 3 32 56 VTop 2
SYMATTR InstName R69
SYMATTR Value {R}
SYMBOL cap 5616 112 R0
SYMATTR InstName C69
SYMATTR Value {C}
SYMBOL res 5728 96 R90
WINDOW 0 0 56 VBottom 2
WINDOW 3 32 56 VTop 2
SYMATTR InstName R70
SYMATTR Value {R}
SYMBOL cap 5696 112 R0
SYMATTR InstName C70
SYMATTR Value {C}
SYMBOL res 5808 96 R90
WINDOW 0 0 56 VBottom 2
WINDOW 3 32 56 VTop 2
SYMATTR InstName R71
SYMATTR Value {R}
SYMBOL cap 5776 112 R0
SYMATTR InstName C71
SYMATTR Value {C}
SYMBOL res 5888 96 R90
WINDOW 0 0 56 VBottom 2
WINDOW 3 32 56 VTop 2
SYMATTR InstName R72
SYMATTR Value {R}
SYMBOL cap 5856 112 R0
SYMATTR InstName C72
SYMATTR Value {C}
SYMBOL res 5968 96 R90
WINDOW 0 0 56 VBottom 2
WINDOW 3 32 56 VTop 2
SYMATTR InstName R73
SYMATTR Value {R}
SYMBOL cap 5936 112 R0
SYMATTR InstName C73
SYMATTR Value {C}
SYMBOL res 6048 96 R90
WINDOW 0 0 56 VBottom 2
WINDOW 3 32 56 VTop 2
SYMATTR InstName R74
SYMATTR Value {R}
SYMBOL cap 6016 112 R0
SYMATTR InstName C74
SYMATTR Value {C}
SYMBOL res 6128 96 R90
WINDOW 0 0 56 VBottom 2
WINDOW 3 32 56 VTop 2
SYMATTR InstName R75
SYMATTR Value {R}
SYMBOL cap 6096 112 R0
SYMATTR InstName C75
SYMATTR Value {C}
SYMBOL res 6208 96 R90
WINDOW 0 0 56 VBottom 2
WINDOW 3 32 56 VTop 2
SYMATTR InstName R76
SYMATTR Value {R}
SYMBOL cap 6176 112 R0
SYMATTR InstName C76
SYMATTR Value {C}
SYMBOL res 6288 96 R90
WINDOW 0 0 56 VBottom 2
WINDOW 3 32 56 VTop 2
SYMATTR InstName R77
SYMATTR Value {R}
SYMBOL cap 6256 112 R0
SYMATTR InstName C77
SYMATTR Value {C}
SYMBOL res 6368 96 R90
WINDOW 0 0 56 VBottom 2
WINDOW 3 32 56 VTop 2
SYMATTR InstName R78
SYMATTR Value {R}
SYMBOL cap 6336 112 R0
SYMATTR InstName C78
SYMATTR Value {C}
SYMBOL res 6448 96 R90
WINDOW 0 0 56 VBottom 2
WINDOW 3 32 56 VTop 2
SYMATTR InstName R79
SYMATTR Value {R}
SYMBOL cap 6416 112 R0
SYMATTR InstName C79
SYMATTR Value {C}
SYMBOL res 6528 96 R90
WINDOW 0 0 56 VBottom 2
WINDOW 3 32 56 VTop 2
SYMATTR InstName R80
SYMATTR Value {R}
SYMBOL cap 6496 112 R0
SYMATTR InstName C80
SYMATTR Value {C}
SYMBOL res 6608 96 R90
WINDOW 0 0 56 VBottom 2
WINDOW 3 32 56 VTop 2
SYMATTR InstName R81
SYMATTR Value {R}
SYMBOL cap 6576 112 R0
SYMATTR InstName C81
SYMATTR Value {C}
SYMBOL res 6688 96 R90
WINDOW 0 0 56 VBottom 2
WINDOW 3 32 56 VTop 2
SYMATTR InstName R82
SYMATTR Value {R}
SYMBOL cap 6656 112 R0
SYMATTR InstName C82
SYMATTR Value {C}
SYMBOL res 6768 96 R90
WINDOW 0 0 56 VBottom 2
WINDOW 3 32 56 VTop 2
SYMATTR InstName R83
SYMATTR Value {R}
SYMBOL cap 6736 112 R0
SYMATTR InstName C83
SYMATTR Value {C}
SYMBOL res 6848 96 R90
WINDOW 0 0 56 VBottom 2
WINDOW 3 32 56 VTop 2
SYMATTR InstName R84
SYMATTR Value {R}
SYMBOL cap 6816 112 R0
SYMATTR InstName C84
SYMATTR Value {C}
SYMBOL res 6928 96 R90
WINDOW 0 0 56 VBottom 2
WINDOW 3 32 56 VTop 2
SYMATTR InstName R85
SYMATTR Value {R}
SYMBOL cap 6896 112 R0
SYMATTR InstName C85
SYMATTR Value {C}
SYMBOL res 7008 96 R90
WINDOW 0 0 56 VBottom 2
WINDOW 3 32 56 VTop 2
SYMATTR InstName R86
SYMATTR Value {R}
SYMBOL cap 6976 112 R0
SYMATTR InstName C86
SYMATTR Value {C}
SYMBOL res 7088 96 R90
WINDOW 0 0 56 VBottom 2
WINDOW 3 32 56 VTop 2
SYMATTR InstName R87
SYMATTR Value {R}
SYMBOL cap 7056 112 R0
SYMATTR InstName C87
SYMATTR Value {C}
SYMBOL res 7168 96 R90
WINDOW 0 0 56 VBottom 2
WINDOW 3 32 56 VTop 2
SYMATTR InstName R88
SYMATTR Value {R}
SYMBOL cap 7136 112 R0
SYMATTR InstName C88
SYMATTR Value {C}
SYMBOL res 7248 96 R90
WINDOW 0 0 56 VBottom 2
WINDOW 3 32 56 VTop 2
SYMATTR InstName R89
SYMATTR Value {R}
SYMBOL cap 7216 112 R0
SYMATTR InstName C89
SYMATTR Value {C}
SYMBOL res 7328 96 R90
WINDOW 0 0 56 VBottom 2
WINDOW 3 32 56 VTop 2
SYMATTR InstName R90
SYMATTR Value {R}
SYMBOL cap 7296 112 R0
SYMATTR InstName C90
SYMATTR Value {C}
SYMBOL res 7408 96 R90
WINDOW 0 0 56 VBottom 2
WINDOW 3 32 56 VTop 2
SYMATTR InstName R91
SYMATTR Value {R}
SYMBOL cap 7376 112 R0
SYMATTR InstName C91
SYMATTR Value {C}
SYMBOL res 7488 96 R90
WINDOW 0 0 56 VBottom 2
WINDOW 3 32 56 VTop 2
SYMATTR InstName R92
SYMATTR Value {R}
SYMBOL cap 7456 112 R0
SYMATTR InstName C92
SYMATTR Value {C}
SYMBOL res 7568 96 R90
WINDOW 0 0 56 VBottom 2
WINDOW 3 32 56 VTop 2
SYMATTR InstName R93
SYMATTR Value {R}
SYMBOL cap 7536 112 R0
SYMATTR InstName C93
SYMATTR Value {C}
SYMBOL res 7648 96 R90
WINDOW 0 0 56 VBottom 2
WINDOW 3 32 56 VTop 2
SYMATTR InstName R94
SYMATTR Value {R}
SYMBOL cap 7616 112 R0
SYMATTR InstName C94
SYMATTR Value {C}
SYMBOL res 7728 96 R90
WINDOW 0 0 56 VBottom 2
WINDOW 3 32 56 VTop 2
SYMATTR InstName R95
SYMATTR Value {R}
SYMBOL cap 7696 112 R0
SYMATTR InstName C95
SYMATTR Value {C}
SYMBOL res 7808 96 R90
WINDOW 0 0 56 VBottom 2
WINDOW 3 32 56 VTop 2
SYMATTR InstName R96
SYMATTR Value {R}
SYMBOL cap 7776 112 R0
SYMATTR InstName C96
SYMATTR Value {C}
SYMBOL res 7888 96 R90
WINDOW 0 0 56 VBottom 2
WINDOW 3 32 56 VTop 2
SYMATTR InstName R97
SYMATTR Value {R}
SYMBOL cap 7856 112 R0
SYMATTR InstName C97
SYMATTR Value {C}
SYMBOL res 7968 96 R90
WINDOW 0 0 56 VBottom 2
WINDOW 3 32 56 VTop 2
SYMATTR InstName R98
SYMATTR Value {R}
SYMBOL cap 7936 112 R0
SYMATTR InstName C98
SYMATTR Value {C}
SYMBOL res 8048 96 R90
WINDOW 0 0 56 VBottom 2
WINDOW 3 32 56 VTop 2
SYMATTR InstName R99
SYMATTR Value {R}
SYMBOL cap 8016 112 R0
SYMATTR InstName C99
SYMATTR Value {C}
SYMBOL res 8128 96 R90
WINDOW 0 0 56 VBottom 2
WINDOW 3 32 56 VTop 2
SYMATTR InstName R100
SYMATTR Value {R}
SYMBOL cap 8096 112 R0
SYMATTR InstName C100
SYMATTR Value {C}
SYMBOL res 8208 96 R90
WINDOW 0 0 56 VBottom 2
WINDOW 3 32 56 VTop 2
SYMATTR InstName R101
SYMATTR Value {R}
SYMBOL cap 8176 112 R0
SYMATTR InstName C101
SYMATTR Value {C}
SYMBOL res 8288 96 R90
WINDOW 0 0 56 VBottom 2
WINDOW 3 32 56 VTop 2
SYMATTR InstName R102
SYMATTR Value {R}
SYMBOL cap 8256 112 R0
SYMATTR InstName C102
SYMATTR Value {C}
SYMBOL res 8368 96 R90
WINDOW 0 0 56 VBottom 2
WINDOW 3 32 56 VTop 2
SYMATTR InstName R103
SYMATTR Value {R}
SYMBOL cap 8336 112 R0
SYMATTR InstName C103
SYMATTR Value {C}
SYMBOL res 8448 96 R90
WINDOW 0 0 56 VBottom 2
WINDOW 3 32 56 VTop 2
SYMATTR InstName R104
SYMATTR Value {R}
SYMBOL cap 8416 112 R0
SYMATTR InstName C104
SYMATTR Value {C}
SYMBOL res 8528 96 R90
WINDOW 0 0 56 VBottom 2
WINDOW 3 32 56 VTop 2
SYMATTR InstName R105
SYMATTR Value {R}
SYMBOL cap 8496 112 R0
SYMATTR InstName C105
SYMATTR Value {C}
SYMBOL res 8608 96 R90
WINDOW 0 0 56 VBottom 2
WINDOW 3 32 56 VTop 2
SYMATTR InstName R106
SYMATTR Value {R}
SYMBOL cap 8576 112 R0
SYMATTR InstName C106
SYMATTR Value {C}
SYMBOL res 8688 96 R90
WINDOW 0 0 56 VBottom 2
WINDOW 3 32 56 VTop 2
SYMATTR InstName R107
SYMATTR Value {R}
SYMBOL cap 8656 112 R0
SYMATTR InstName C107
SYMATTR Value {C}
SYMBOL res 8768 96 R90
WINDOW 0 0 56 VBottom 2
WINDOW 3 32 56 VTop 2
SYMATTR InstName R108
SYMATTR Value {R}
SYMBOL cap 8736 112 R0
SYMATTR InstName C108
SYMATTR Value {C}
SYMBOL res 8848 96 R90
WINDOW 0 0 56 VBottom 2
WINDOW 3 32 56 VTop 2
SYMATTR InstName R109
SYMATTR Value {R}
SYMBOL cap 8816 112 R0
SYMATTR InstName C109
SYMATTR Value {C}
SYMBOL res 8928 96 R90
WINDOW 0 0 56 VBottom 2
WINDOW 3 32 56 VTop 2
SYMATTR InstName R110
SYMATTR Value {R}
SYMBOL cap 8896 112 R0
SYMATTR InstName C110
SYMATTR Value {C}
SYMBOL res 9008 96 R90
WINDOW 0 0 56 VBottom 2
WINDOW 3 32 56 VTop 2
SYMATTR InstName R111
SYMATTR Value {R}
SYMBOL cap 8976 112 R0
SYMATTR InstName C111
SYMATTR Value {C}
SYMBOL res 9088 96 R90
WINDOW 0 0 56 VBottom 2
WINDOW 3 32 56 VTop 2
SYMATTR InstName R112
SYMATTR Value {R}
SYMBOL cap 9056 112 R0
SYMATTR InstName C112
SYMATTR Value {C}
SYMBOL res 9168 96 R90
WINDOW 0 0 56 VBottom 2
WINDOW 3 32 56 VTop 2
SYMATTR InstName R113
SYMATTR Value {R}
SYMBOL cap 9136 112 R0
SYMATTR InstName C113
SYMATTR Value {C}
SYMBOL res 9248 96 R90
WINDOW 0 0 56 VBottom 2
WINDOW 3 32 56 VTop 2
SYMATTR InstName R114
SYMATTR Value {R}
SYMBOL cap 9216 112 R0
SYMATTR InstName C114
SYMATTR Value {C}
SYMBOL res 9328 96 R90
WINDOW 0 0 56 VBottom 2
WINDOW 3 32 56 VTop 2
SYMATTR InstName R115
SYMATTR Value {R}
SYMBOL cap 9296 112 R0
SYMATTR InstName C115
SYMATTR Value {C}
SYMBOL res 9408 96 R90
WINDOW 0 0 56 VBottom 2
WINDOW 3 32 56 VTop 2
SYMATTR InstName R116
SYMATTR Value {R}
SYMBOL cap 9376 112 R0
SYMATTR InstName C116
SYMATTR Value {C}
SYMBOL res 9488 96 R90
WINDOW 0 0 56 VBottom 2
WINDOW 3 32 56 VTop 2
SYMATTR InstName R117
SYMATTR Value {R}
SYMBOL cap 9456 112 R0
SYMATTR InstName C117
SYMATTR Value {C}
SYMBOL res 9568 96 R90
WINDOW 0 0 56 VBottom 2
WINDOW 3 32 56 VTop 2
SYMATTR InstName R118
SYMATTR Value {R}
SYMBOL cap 9536 112 R0
SYMATTR InstName C118
SYMATTR Value {C}
SYMBOL res 9648 96 R90
WINDOW 0 0 56 VBottom 2
WINDOW 3 32 56 VTop 2
SYMATTR InstName R119
SYMATTR Value {R}
SYMBOL cap 9616 112 R0
SYMATTR InstName C119
SYMATTR Value {C}
SYMBOL res 9728 96 R90
WINDOW 0 0 56 VBottom 2
WINDOW 3 32 56 VTop 2
SYMATTR InstName R120
SYMATTR Value {R}
SYMBOL cap 9696 112 R0
SYMATTR InstName C120
SYMATTR Value {C}
SYMBOL res 9808 96 R90
WINDOW 0 0 56 VBottom 2
WINDOW 3 32 56 VTop 2
SYMATTR InstName R121
SYMATTR Value {R}
SYMBOL cap 9776 112 R0
SYMATTR InstName C121
SYMATTR Value {C}
SYMBOL res 9888 96 R90
WINDOW 0 0 56 VBottom 2
WINDOW 3 32 56 VTop 2
SYMATTR InstName R122
SYMATTR Value {R}
SYMBOL cap 9856 112 R0
SYMATTR InstName C122
SYMATTR Value {C}
SYMBOL res 9968 96 R90
WINDOW 0 0 56 VBottom 2
WINDOW 3 32 56 VTop 2
SYMATTR InstName R123
SYMATTR Value {R}
SYMBOL cap 9936 112 R0
SYMATTR InstName C123
SYMATTR Value {C}
SYMBOL res 10048 96 R90
WINDOW 0 0 56 VBottom 2
WINDOW 3 32 56 VTop 2
SYMATTR InstName R124
SYMATTR Value {R}
SYMBOL cap 10016 112 R0
SYMATTR InstName C124
SYMATTR Value {C}
SYMBOL res 10128 96 R90
WINDOW 0 0 56 VBottom 2
WINDOW 3 32 56 VTop 2
SYMATTR InstName R125
SYMATTR Value {R}
SYMBOL cap 10096 112 R0
SYMATTR InstName C125
SYMATTR Value {C}
SYMBOL res 10208 96 R90
WINDOW 0 0 56 VBottom 2
WINDOW 3 32 56 VTop 2
SYMATTR InstName R126
SYMATTR Value {R}